%chk=entry2_confs_0
%nprocshared=4
%mem=260MB
#opt hf/3-21g

 Conformer_0 at -57.784973978956714 MMFF energy generated from O[C@H]1C[C@@H](O[C@@H]1CO)N(C(N2)=O)C=C(C)C2=O

0  1
O           3.02560        -1.81650         0.06400
C           2.61250        -0.71640        -0.49610
C           1.15590        -0.93130        -0.93000
C           0.47430        -0.68120         0.42280
O           1.10440         0.46600         0.83470
C           2.43770         0.35150         0.55880
C           3.03570         1.63300        -0.02790
O           4.39060         1.36920        -0.25690
N          -0.93580        -0.57290         0.29650
C          -1.65600        -1.73250         0.26020
N          -2.98360        -1.75120         0.14420
O          -1.06230        -2.83590         0.33780
C          -1.64120         0.55680         0.20860
C          -3.01700         0.57000         0.08760
C          -3.78370         1.84390        -0.00910
C          -3.69960        -0.62330         0.05530
O          -4.95960        -0.66850        -0.05410
H           2.80970        -2.30340         0.70200
H           3.23500        -0.39190        -1.34080
H           0.85010        -0.11590        -1.62220
H           0.97740        -1.93630        -1.30650
H           0.73000        -1.56470         1.05460
H           3.06700         0.12340         1.45400
H           2.54150         1.84090        -1.00540
H           2.96890         2.47790         0.68020
H           4.91730         2.18720        -0.36020
H          -3.51500        -2.66640         0.11880
H          -1.09230         1.49080         0.23510
H          -3.34930         2.64300         0.60050
H          -4.85030         1.64410         0.25460
H          -3.78790         2.11070        -1.09800

--Link1--
%chk=entry2_confs_0
%nprocshared=4
%mem=260MB
#opt b3lyp/6-31g(d) Geom=AllCheck Guess=Read

