%chk=entry2_confs_1
%nprocshared=4
%mem=260MB
#opt hf/3-21g

 Conformer_1 at -54.66768848901698 MMFF energy generated from O[C@H]1C[C@@H](O[C@@H]1CO)N(C(N2)=O)C=C(C)C2=O

0  1
O          -2.73340         0.77630        -2.12700
C          -2.24490        -0.02690        -1.22490
C          -0.71980        -0.04800        -1.22340
C          -0.42590         0.33930         0.21020
O          -1.49020        -0.17890         0.88930
C          -2.54540         0.43240         0.18450
C          -3.88960        -0.02980         0.66020
O          -4.85180         0.63390        -0.09860
N           0.85750        -0.17860         0.56460
C           1.08380        -1.18620         1.41590
N           2.35020        -1.60940         1.69020
O           0.11380        -1.73430         1.95690
C           1.93340         0.39610        -0.00680
C           3.22550         0.00180         0.24070
C           4.39240         0.67570        -0.42260
C           3.42390        -1.03130         1.11600
O           4.60170        -1.39460         1.34490
H          -2.69530         0.72100        -2.97870
H          -2.60190        -1.06780        -1.31040
H          -0.34080        -1.06380        -1.40340
H          -0.28650         0.71630        -1.87230
H          -0.40780         1.43470         0.35610
H          -2.40160         1.52260         0.30250
H          -4.03700         0.04180         1.73330
H          -3.96860        -1.12060         0.37910
H          -4.56150         1.58310        -0.20020
H           2.48360        -2.39340         2.35570
H           1.81860         1.22790        -0.71480
H           4.87970         1.40230         0.25030
H           3.98020         1.25310        -1.27880
H           5.05780        -0.09470        -0.82420

--Link1--
%chk=entry2_confs_1
%nprocshared=4
%mem=260MB
#opt b3lyp/6-31g(d) Geom=AllCheck Guess=Read

