Conformer_0 at -57.784973978956714 MMFF energy generated from O[C@H]1C[C@@H](O[C@@H]1CO)N(C(N2)=O)C=C(C)C2=O
     RDKit          3D

 31 32  0  0  0  0  0  0  0  0999 V2000
    3.0256   -1.8165    0.0640 O   0  0  0  0  0  0  0  0  0  0  0  0
    2.6125   -0.7164   -0.4961 C   0  0  1  0  0  0  0  0  0  0  0  0
    1.1559   -0.9313   -0.9300 C   0  0  0  0  0  0  0  0  0  0  0  0
    0.4743   -0.6812    0.4228 C   0  0  1  0  0  0  0  0  0  0  0  0
    1.1044    0.4660    0.8347 O   0  0  0  0  0  0  0  0  0  0  0  0
    2.4377    0.3515    0.5588 C   0  0  2  0  0  0  0  0  0  0  0  0
    3.0357    1.6330   -0.0279 C   0  0  0  0  0  0  0  0  0  0  0  0
    4.3906    1.3692   -0.2569 O   0  0  0  0  0  0  0  0  0  0  0  0
   -0.9358   -0.5729    0.2965 N   0  0  0  0  0  0  0  0  0  0  0  0
   -1.6560   -1.7325    0.2602 C   0  0  0  0  0  0  0  0  0  0  0  0
   -2.9836   -1.7512    0.1442 N   0  0  0  0  0  0  0  0  0  0  0  0
   -1.0623   -2.8359    0.3378 O   0  0  0  0  0  0  0  0  0  0  0  0
   -1.6412    0.5568    0.2086 C   0  0  0  0  0  0  0  0  0  0  0  0
   -3.0170    0.5700    0.0876 C   0  0  0  0  0  0  0  0  0  0  0  0
   -3.7837    1.8439   -0.0091 C   0  0  0  0  0  0  0  0  0  0  0  0
   -3.6996   -0.6233    0.0553 C   0  0  0  0  0  0  0  0  0  0  0  0
   -4.9596   -0.6685   -0.0541 O   0  0  0  0  0  0  0  0  0  0  0  0
    2.8097   -2.3034    0.7020 H   0  0  0  0  0  0  0  0  0  0  0  0
    3.2350   -0.3919   -1.3408 H   0  0  0  0  0  0  0  0  0  0  0  0
    0.8501   -0.1159   -1.6222 H   0  0  0  0  0  0  0  0  0  0  0  0
    0.9774   -1.9363   -1.3065 H   0  0  0  0  0  0  0  0  0  0  0  0
    0.7300   -1.5647    1.0546 H   0  0  0  0  0  0  0  0  0  0  0  0
    3.0670    0.1234    1.4540 H   0  0  0  0  0  0  0  0  0  0  0  0
    2.5415    1.8409   -1.0054 H   0  0  0  0  0  0  0  0  0  0  0  0
    2.9689    2.4779    0.6802 H   0  0  0  0  0  0  0  0  0  0  0  0
    4.9173    2.1872   -0.3602 H   0  0  0  0  0  0  0  0  0  0  0  0
   -3.5150   -2.6664    0.1188 H   0  0  0  0  0  0  0  0  0  0  0  0
   -1.0923    1.4908    0.2351 H   0  0  0  0  0  0  0  0  0  0  0  0
   -3.3493    2.6430    0.6005 H   0  0  0  0  0  0  0  0  0  0  0  0
   -4.8503    1.6441    0.2546 H   0  0  0  0  0  0  0  0  0  0  0  0
   -3.7879    2.1107   -1.0980 H   0  0  0  0  0  0  0  0  0  0  0  0
  1  2  1  0
  2  3  1  0
  3  4  1  0
  4  5  1  0
  5  6  1  0
  6  7  1  0
  7  8  1  0
  4  9  1  0
  9 10  1  0
 10 11  1  0
 10 12  2  0
  9 13  1  0
 13 14  2  0
 14 15  1  0
 14 16  1  0
 16 17  2  0
  6  2  1  0
 16 11  1  0
  1 18  1  0
  2 19  1  6
  3 20  1  0
  3 21  1  0
  4 22  1  1
  6 23  1  1
  7 24  1  0
  7 25  1  0
  8 26  1  0
 11 27  1  0
 13 28  1  0
 15 29  1  0
 15 30  1  0
 15 31  1  0
M  END
>  <MMFF_Energy>  (1) 
-57.784973978956714

$$$$
Conformer_1 at -54.66768848901698 MMFF energy generated from O[C@H]1C[C@@H](O[C@@H]1CO)N(C(N2)=O)C=C(C)C2=O
     RDKit          3D

 31 32  0  0  0  0  0  0  0  0999 V2000
   -2.7334    0.7763   -2.1270 O   0  0  0  0  0  0  0  0  0  0  0  0
   -2.2449   -0.0269   -1.2249 C   0  0  1  0  0  0  0  0  0  0  0  0
   -0.7198   -0.0480   -1.2234 C   0  0  0  0  0  0  0  0  0  0  0  0
   -0.4259    0.3393    0.2102 C   0  0  1  0  0  0  0  0  0  0  0  0
   -1.4902   -0.1789    0.8893 O   0  0  0  0  0  0  0  0  0  0  0  0
   -2.5454    0.4324    0.1845 C   0  0  2  0  0  0  0  0  0  0  0  0
   -3.8896   -0.0298    0.6602 C   0  0  0  0  0  0  0  0  0  0  0  0
   -4.8518    0.6339   -0.0986 O   0  0  0  0  0  0  0  0  0  0  0  0
    0.8575   -0.1786    0.5646 N   0  0  0  0  0  0  0  0  0  0  0  0
    1.0838   -1.1862    1.4159 C   0  0  0  0  0  0  0  0  0  0  0  0
    2.3502   -1.6094    1.6902 N   0  0  0  0  0  0  0  0  0  0  0  0
    0.1138   -1.7343    1.9569 O   0  0  0  0  0  0  0  0  0  0  0  0
    1.9334    0.3961   -0.0068 C   0  0  0  0  0  0  0  0  0  0  0  0
    3.2255    0.0018    0.2407 C   0  0  0  0  0  0  0  0  0  0  0  0
    4.3924    0.6757   -0.4226 C   0  0  0  0  0  0  0  0  0  0  0  0
    3.4239   -1.0313    1.1160 C   0  0  0  0  0  0  0  0  0  0  0  0
    4.6017   -1.3946    1.3449 O   0  0  0  0  0  0  0  0  0  0  0  0
   -2.6953    0.7210   -2.9787 H   0  0  0  0  0  0  0  0  0  0  0  0
   -2.6019   -1.0678   -1.3104 H   0  0  0  0  0  0  0  0  0  0  0  0
   -0.3408   -1.0638   -1.4034 H   0  0  0  0  0  0  0  0  0  0  0  0
   -0.2865    0.7163   -1.8723 H   0  0  0  0  0  0  0  0  0  0  0  0
   -0.4078    1.4347    0.3561 H   0  0  0  0  0  0  0  0  0  0  0  0
   -2.4016    1.5226    0.3025 H   0  0  0  0  0  0  0  0  0  0  0  0
   -4.0370    0.0418    1.7333 H   0  0  0  0  0  0  0  0  0  0  0  0
   -3.9686   -1.1206    0.3791 H   0  0  0  0  0  0  0  0  0  0  0  0
   -4.5615    1.5831   -0.2002 H   0  0  0  0  0  0  0  0  0  0  0  0
    2.4836   -2.3934    2.3557 H   0  0  0  0  0  0  0  0  0  0  0  0
    1.8186    1.2279   -0.7148 H   0  0  0  0  0  0  0  0  0  0  0  0
    4.8797    1.4023    0.2503 H   0  0  0  0  0  0  0  0  0  0  0  0
    3.9802    1.2531   -1.2788 H   0  0  0  0  0  0  0  0  0  0  0  0
    5.0578   -0.0947   -0.8242 H   0  0  0  0  0  0  0  0  0  0  0  0
  1  2  1  0
  2  3  1  0
  3  4  1  0
  4  5  1  0
  5  6  1  0
  6  7  1  0
  7  8  1  0
  4  9  1  0
  9 10  1  0
 10 11  1  0
 10 12  2  0
  9 13  1  0
 13 14  2  0
 14 15  1  0
 14 16  1  0
 16 17  2  0
  6  2  1  0
 16 11  1  0
  1 18  1  0
  2 19  1  6
  3 20  1  0
  3 21  1  0
  4 22  1  6
  6 23  1  6
  7 24  1  0
  7 25  1  0
  8 26  1  0
 11 27  1  0
 13 28  1  0
 15 29  1  0
 15 30  1  0
 15 31  1  0
M  END
>  <MMFF_Energy>  (2) 
-54.66768848901698

$$$$