%chk=entry3_confs_1
%nprocshared=4
%mem=260MB
#opt hf/3-21g

 Conformer_1 at -56.52007976270452 MMFF energy generated from O[C@H]1C[C@@H](O[C@@H]1CO)N(C(N2)=O)C=CC2=O

0  1
O           2.88440         1.03630         1.05350
C           1.90720         0.24730         0.74960
C           0.58710         0.99130         0.71660
C          -0.05090         0.46100        -0.53560
O           0.65000        -0.72570        -0.84620
C           1.96830        -0.28450        -0.66920
C           2.88150        -1.47210        -0.79660
O           4.20770        -1.15280        -0.63930
N          -1.45250         0.26030        -0.44880
C          -1.92210        -0.82070         0.22770
N          -3.24840        -1.02350         0.31800
O          -1.12260        -1.63590         0.77180
C          -2.29080         1.13670        -1.03310
C          -3.65180         0.92710        -0.93950
C          -4.11360        -0.17460        -0.24960
O          -5.36820        -0.34330        -0.17890
H           3.11550         1.27030         1.85160
H           1.84450        -0.60320         1.48380
H           0.80240         2.06730         0.61640
H          -0.01640         0.82620         1.62400
H           0.18280         1.16050        -1.36410
H           2.24830         0.52710        -1.34100
H           2.75030        -1.87630        -1.82110
H           2.60080        -2.24720        -0.06160
H           4.48010        -0.31920        -1.08570
H          -3.61240        -1.86790         0.84650
H          -1.91160         2.01330        -1.58170
H          -4.34930         1.62250        -1.40410

--Link1--
%chk=entry3_confs_1
%nprocshared=4
%mem=260MB
#opt b3lyp/6-31g(d) Geom=AllCheck Guess=Read

