%chk=entry3_confs_0
%nprocshared=4
%mem=260MB
#opt hf/3-21g

 Conformer_0 at -61.764080507159065 MMFF energy generated from O[C@H]1C[C@@H](O[C@@H]1CO)N(C(N2)=O)C=CC2=O

0  1
O          -2.18190        -0.12790         2.17610
C          -2.13310         0.39870         1.00050
C          -0.71300         0.95600         0.81020
C          -0.00380        -0.38270         0.57650
O          -0.82740        -0.96440        -0.36220
C          -2.13300        -0.68740        -0.04100
C          -2.84650        -0.26280        -1.30690
O          -2.29400         0.85850        -1.89000
N           1.33820        -0.21820         0.13740
C           2.29740        -0.96840         0.71050
N           3.60040        -0.85880         0.33550
O           2.05590        -1.80700         1.61650
C           1.65430         0.65380        -0.81780
C           2.97130         0.78350        -1.21620
C           3.93280         0.00980        -0.61950
O           5.14370         0.08970        -0.94560
H          -2.05590        -0.89750         2.42030
H          -2.89070         1.17760         0.81260
H          -0.36420         1.45100         1.72030
H          -0.70710         1.58690        -0.09030
H          -0.10910        -0.94170         1.52050
H          -2.66070        -1.56870         0.35410
H          -3.94540        -0.13680        -1.09950
H          -2.77980        -1.09590        -2.03660
H          -2.86310         1.66350        -1.71750
H           4.33180        -1.45240         0.79460
H           0.91320         1.25820        -1.28590
H           3.26970         1.48350        -1.99200

--Link1--
%chk=entry3_confs_0
%nprocshared=4
%mem=260MB
#opt b3lyp/6-31g(d) Geom=AllCheck Guess=Read

