Conformer_0 at -21.261678838689907 MMFF energy generated from O=C1C(N=CN2[C@H]3C[C@H](O)[C@@H](CO)O3)=C2N=C(N)N1
     RDKit          3D

 32 34  0  0  0  0  0  0  0  0999 V2000
    4.4599    0.5441   -1.7851 O   0  0  0  0  0  0  0  0  0  0  0  0
    3.6107    0.5341   -0.8651 C   0  0  0  0  0  0  0  0  0  0  0  0
    2.4649   -0.2162   -1.0581 C   0  0  0  0  0  0  0  0  0  0  0  0
    2.0122   -0.9874   -2.0578 N   0  0  0  0  0  0  0  0  0  0  0  0
    0.8188   -1.4676   -1.6720 C   0  0  0  0  0  0  0  0  0  0  0  0
    0.5255   -1.0049   -0.4473 N   0  0  0  0  0  0  0  0  0  0  0  0
   -0.6975   -1.3424    0.2512 C   0  0  1  0  0  0  0  0  0  0  0  0
   -1.1746   -0.2501    1.1738 C   0  0  0  0  0  0  0  0  0  0  0  0
   -2.6912   -0.3611    0.9557 C   0  0  2  0  0  0  0  0  0  0  0  0
   -3.2071   -1.4225    1.6675 O   0  0  0  0  0  0  0  0  0  0  0  0
   -2.7179   -0.7031   -0.5163 C   0  0  1  0  0  0  0  0  0  0  0  0
   -2.5709    0.5736   -1.2957 C   0  0  0  0  0  0  0  0  0  0  0  0
   -2.4789    0.3016   -2.6786 O   0  0  0  0  0  0  0  0  0  0  0  0
   -1.6798   -1.5774   -0.6697 O   0  0  0  0  0  0  0  0  0  0  0  0
    1.5358   -0.2256   -0.0488 C   0  0  0  0  0  0  0  0  0  0  0  0
    1.7004    0.4581    1.1001 N   0  0  0  0  0  0  0  0  0  0  0  0
    2.8223    1.1800    1.2642 C   0  0  0  0  0  0  0  0  0  0  0  0
    3.0619    1.9254    2.4503 N   0  0  0  0  0  0  0  0  0  0  0  0
    3.7664    1.2096    0.2775 N   0  0  0  0  0  0  0  0  0  0  0  0
    0.2116   -2.1308   -2.2906 H   0  0  0  0  0  0  0  0  0  0  0  0
   -0.5737   -2.2560    0.8742 H   0  0  0  0  0  0  0  0  0  0  0  0
   -0.9236   -0.4326    2.2236 H   0  0  0  0  0  0  0  0  0  0  0  0
   -0.8546    0.7647    0.8205 H   0  0  0  0  0  0  0  0  0  0  0  0
   -3.1925    0.6054    1.1587 H   0  0  0  0  0  0  0  0  0  0  0  0
   -3.4736   -2.1887    1.1038 H   0  0  0  0  0  0  0  0  0  0  0  0
   -3.6850   -1.1711   -0.7892 H   0  0  0  0  0  0  0  0  0  0  0  0
   -1.7491    1.2083   -0.9583 H   0  0  0  0  0  0  0  0  0  0  0  0
   -3.5256    1.1474   -1.1743 H   0  0  0  0  0  0  0  0  0  0  0  0
   -2.7394    1.0776   -3.2201 H   0  0  0  0  0  0  0  0  0  0  0  0
    3.3587    2.9200    2.3905 H   0  0  0  0  0  0  0  0  0  0  0  0
    2.9517    1.5134    3.3992 H   0  0  0  0  0  0  0  0  0  0  0  0
    4.6344    1.7742    0.4162 H   0  0  0  0  0  0  0  0  0  0  0  0
  1  2  2  0
  2  3  1  0
  3  4  1  0
  4  5  2  0
  5  6  1  0
  6  7  1  0
  7  8  1  0
  8  9  1  0
  9 10  1  0
  9 11  1  0
 11 12  1  0
 12 13  1  0
 11 14  1  0
  3 15  2  0
 15 16  1  0
 16 17  2  0
 17 18  1  0
 17 19  1  0
 19  2  1  0
 15  6  1  0
 14  7  1  0
  5 20  1  0
  7 21  1  1
  8 22  1  0
  8 23  1  0
  9 24  1  6
 10 25  1  0
 11 26  1  6
 12 27  1  0
 12 28  1  0
 13 29  1  0
 18 30  1  0
 18 31  1  0
 19 32  1  0
M  END
>  <MMFF_Energy>  (1) 
-21.261678838689907

$$$$
Conformer_1 at -23.371629409415668 MMFF energy generated from O=C1C(N=CN2[C@H]3C[C@H](O)[C@@H](CO)O3)=C2N=C(N)N1
     RDKit          3D

 32 34  0  0  0  0  0  0  0  0999 V2000
    4.5932    2.2513   -0.8614 O   0  0  0  0  0  0  0  0  0  0  0  0
    3.9687    1.3807   -0.6537 C   0  0  0  0  0  0  0  0  0  0  0  0
    2.5883    1.4977   -0.4612 C   0  0  0  0  0  0  0  0  0  0  0  0
    1.7793    2.5674   -0.4791 N   0  0  0  0  0  0  0  0  0  0  0  0
    0.5209    2.1287   -0.2324 C   0  0  0  0  0  0  0  0  0  0  0  0
    0.5054    0.8159   -0.0587 N   0  0  0  0  0  0  0  0  0  0  0  0
   -0.6349   -0.0526    0.2264 C   0  0  1  0  0  0  0  0  0  0  0  0
   -1.3670    0.4204    1.4744 C   0  0  0  0  0  0  0  0  0  0  0  0
   -2.8138    0.4095    0.9996 C   0  0  2  0  0  0  0  0  0  0  0  0
   -3.6783   -0.1244    1.9165 O   0  0  0  0  0  0  0  0  0  0  0  0
   -2.6867   -0.5446   -0.1961 C   0  0  1  0  0  0  0  0  0  0  0  0
   -3.9197   -0.4401   -1.0516 C   0  0  0  0  0  0  0  0  0  0  0  0
   -3.7110   -1.1469   -2.2270 O   0  0  0  0  0  0  0  0  0  0  0  0
   -1.5536   -0.0316   -0.8063 O   0  0  0  0  0  0  0  0  0  0  0  0
    1.7816    0.3939   -0.1957 C   0  0  0  0  0  0  0  0  0  0  0  0
    2.3550   -0.8170   -0.1238 N   0  0  0  0  0  0  0  0  0  0  0  0
    3.6803   -0.9579   -0.3049 C   0  0  0  0  0  0  0  0  0  0  0  0
    4.2824   -2.2653   -0.2249 N   0  0  0  0  0  0  0  0  0  0  0  0
    4.4499    0.1238   -0.5620 N   0  0  0  0  0  0  0  0  0  0  0  0
   -0.3522    2.7632   -0.1838 H   0  0  0  0  0  0  0  0  0  0  0  0
   -0.2941   -1.0867    0.3687 H   0  0  0  0  0  0  0  0  0  0  0  0
   -1.2399   -0.3310    2.2885 H   0  0  0  0  0  0  0  0  0  0  0  0
   -1.0579    1.4282    1.7772 H   0  0  0  0  0  0  0  0  0  0  0  0
   -3.0566    1.4158    0.6487 H   0  0  0  0  0  0  0  0  0  0  0  0
   -3.2967   -0.2758    2.8048 H   0  0  0  0  0  0  0  0  0  0  0  0
   -2.5728   -1.5696    0.1537 H   0  0  0  0  0  0  0  0  0  0  0  0
   -4.7411   -0.9457   -0.5023 H   0  0  0  0  0  0  0  0  0  0  0  0
   -4.2193    0.6109   -1.2293 H   0  0  0  0  0  0  0  0  0  0  0  0
   -3.8115   -2.1061   -2.0173 H   0  0  0  0  0  0  0  0  0  0  0  0
    4.2576   -2.8428    0.6286 H   0  0  0  0  0  0  0  0  0  0  0  0
    4.7679   -2.6506   -1.0678 H   0  0  0  0  0  0  0  0  0  0  0  0
    5.4768   -0.0190   -0.6980 H   0  0  0  0  0  0  0  0  0  0  0  0
  1  2  2  0
  2  3  1  0
  3  4  1  0
  4  5  2  0
  5  6  1  0
  6  7  1  0
  7  8  1  0
  8  9  1  0
  9 10  1  0
  9 11  1  0
 11 12  1  0
 12 13  1  0
 11 14  1  0
  3 15  2  0
 15 16  1  0
 16 17  2  0
 17 18  1  0
 17 19  1  0
 19  2  1  0
 15  6  1  0
 14  7  1  0
  5 20  1  0
  7 21  1  1
  8 22  1  0
  8 23  1  0
  9 24  1  6
 10 25  1  0
 11 26  1  1
 12 27  1  0
 12 28  1  0
 13 29  1  0
 18 30  1  0
 18 31  1  0
 19 32  1  0
M  END
>  <MMFF_Energy>  (2) 
-23.371629409415668

$$$$