%chk=entry1_confs_0
%nprocshared=4
%mem=260MB
#opt hf/3-21g

 Conformer_0 at -21.261678838689907 MMFF energy generated from O=C1C(N=CN2[C@H]3C[C@H](O)[C@@H](CO)O3)=C2N=C(N)N1

0  1
O           4.45990         0.54410        -1.78510
C           3.61070         0.53410        -0.86510
C           2.46490        -0.21620        -1.05810
N           2.01220        -0.98740        -2.05780
C           0.81880        -1.46760        -1.67200
N           0.52550        -1.00490        -0.44730
C          -0.69750        -1.34240         0.25120
C          -1.17460        -0.25010         1.17380
C          -2.69120        -0.36110         0.95570
O          -3.20710        -1.42250         1.66750
C          -2.71790        -0.70310        -0.51630
C          -2.57090         0.57360        -1.29570
O          -2.47890         0.30160        -2.67860
O          -1.67980        -1.57740        -0.66970
C           1.53580        -0.22560        -0.04880
N           1.70040         0.45810         1.10010
C           2.82230         1.18000         1.26420
N           3.06190         1.92540         2.45030
N           3.76640         1.20960         0.27750
H           0.21160        -2.13080        -2.29060
H          -0.57370        -2.25600         0.87420
H          -0.92360        -0.43260         2.22360
H          -0.85460         0.76470         0.82050
H          -3.19250         0.60540         1.15870
H          -3.47360        -2.18870         1.10380
H          -3.68500        -1.17110        -0.78920
H          -1.74910         1.20830        -0.95830
H          -3.52560         1.14740        -1.17430
H          -2.73940         1.07760        -3.22010
H           3.35870         2.92000         2.39050
H           2.95170         1.51340         3.39920
H           4.63440         1.77420         0.41620

--Link1--
%chk=entry1_confs_0
%nprocshared=4
%mem=260MB
#opt b3lyp/6-31g(d) Geom=AllCheck Guess=Read

